Version 4
SHEET 1 2288 680
WIRE 176 112 -144 112
WIRE 320 112 272 112
WIRE 384 112 320 112
WIRE 496 112 464 112
WIRE 624 112 496 112
WIRE 800 112 624 112
WIRE 1232 112 1088 112
WIRE 1408 112 1312 112
WIRE 1488 112 1408 112
WIRE 1600 112 1568 112
WIRE 1728 112 1600 112
WIRE 1904 112 1728 112
WIRE 800 128 800 112
WIRE 1904 128 1904 112
WIRE -144 144 -144 112
WIRE 1088 144 1088 112
WIRE 176 176 128 176
WIRE 368 176 272 176
WIRE 496 192 496 112
WIRE 624 192 624 112
WIRE 1248 192 1248 160
WIRE 1408 192 1408 112
WIRE 1600 192 1600 112
WIRE 1728 192 1728 112
WIRE 224 208 224 192
WIRE 224 208 32 208
WIRE 1248 208 1248 192
WIRE 32 224 32 208
WIRE 800 240 800 208
WIRE 1904 240 1904 208
WIRE 128 256 128 176
WIRE 320 256 320 112
WIRE 320 256 128 256
WIRE -144 336 -144 224
WIRE 32 336 32 304
WIRE 32 336 -144 336
WIRE 368 336 368 176
WIRE 368 336 32 336
WIRE 496 336 496 256
WIRE 496 336 368 336
WIRE 624 336 624 272
WIRE 624 336 496 336
WIRE 800 336 800 320
WIRE 800 336 624 336
WIRE 1088 336 1088 224
WIRE 1248 336 1248 288
WIRE 1248 336 1088 336
WIRE 1296 336 1296 160
WIRE 1296 336 1248 336
WIRE 1408 336 1408 256
WIRE 1408 336 1296 336
WIRE 1600 336 1600 256
WIRE 1600 336 1408 336
WIRE 1728 336 1728 272
WIRE 1728 336 1600 336
WIRE 1904 336 1904 320
WIRE 1904 336 1728 336
WIRE -144 352 -144 336
WIRE 1088 352 1088 336
FLAG -144 352 0
FLAG 624 112 vout
FLAG 1088 352 0
FLAG 1728 112 vout2
FLAG 1248 192 switch2
SYMBOL voltage -144 128 R0
WINDOW 123 24 124 Left 2
WINDOW 39 0 0 Left 0
WINDOW 3 3 -43 Left 2
SYMATTR Value2 AC 1
SYMATTR InstName V1
SYMATTR Value PULSE(0 10 1u 1n 1n 1000u)
SYMBOL ind 368 128 R270
WINDOW 0 32 56 VTop 2
WINDOW 3 5 56 VBottom 2
SYMATTR InstName L1
SYMATTR Value 10µ
SYMBOL cap 480 192 R0
SYMATTR InstName C1
SYMATTR Value 1µ
SYMBOL res 608 176 R0
SYMATTR InstName R1
SYMATTR Value 10k
SYMBOL AutoGenerated\\CCM-DCM1 224 144 R0
SYMATTR InstName U1
SYMBOL voltage 32 208 R0
WINDOW 123 0 0 Left 0
WINDOW 39 0 0 Left 0
SYMATTR InstName V2
SYMATTR Value 0.5
SYMBOL voltage 1088 128 R0
WINDOW 123 0 0 Left 0
WINDOW 39 0 0 Left 0
SYMATTR InstName V3
SYMATTR Value 10
SYMBOL voltage 1248 192 R0
WINDOW 123 0 0 Left 0
WINDOW 39 0 0 Left 0
SYMATTR InstName V4
SYMATTR Value PULSE(0 5 1u 0.001u 0.001u 0.5u 1u)
SYMBOL ind 1472 128 R270
WINDOW 0 32 56 VTop 2
WINDOW 3 5 56 VBottom 2
SYMATTR InstName L2
SYMATTR Value 10µ
SYMBOL sw 1328 112 M270
SYMATTR InstName S1
SYMBOL cap 1584 192 R0
SYMATTR InstName C2
SYMATTR Value 1µ
SYMBOL res 1712 176 R0
SYMATTR InstName R2
SYMATTR Value 10k
SYMBOL diode 1424 256 R180
WINDOW 0 24 64 Left 2
WINDOW 3 24 0 Left 2
SYMATTR InstName D1
SYMBOL current 800 240 R0
WINDOW 123 0 0 Left 0
WINDOW 39 0 0 Left 0
SYMATTR InstName I1
SYMATTR Value PULSE(0.1 1 200u 1n 1n 200u)
SYMBOL res 784 112 R0
SYMATTR InstName R3
SYMATTR Value 0.1
SYMBOL current 1904 240 R0
WINDOW 123 0 0 Left 0
WINDOW 39 0 0 Left 0
SYMATTR InstName I2
SYMATTR Value PULSE(0.1 1 200u 1n 1n 200u)
SYMBOL res 1888 112 R0
SYMATTR InstName R4
SYMATTR Value 0.1
TEXT 16 416 Left 2 !.model SW SW(Ron=0.0001 Vt=1 Vh=-0.1 Roff=1G)
TEXT 16 448 Left 2 !.model d d ron=0.001 roff=1G vfwd=0.01 vrev=100
TEXT 16 480 Left 2 ;.ac dec 20 10 100k
TEXT 24 512 Left 2 !.tran 500u
