Version 4
SHEET 1 1492 680
WIRE 176 112 -144 112
WIRE 320 112 272 112
WIRE 384 112 320 112
WIRE 496 112 464 112
WIRE 624 112 496 112
WIRE 928 112 784 112
WIRE 1104 112 1008 112
WIRE 1184 112 1104 112
WIRE 1296 112 1264 112
WIRE 1424 112 1296 112
WIRE -144 144 -144 112
WIRE 784 144 784 112
WIRE 176 176 128 176
WIRE 368 176 272 176
WIRE 496 192 496 112
WIRE 624 192 624 112
WIRE 944 192 944 160
WIRE 1104 192 1104 112
WIRE 1296 192 1296 112
WIRE 1424 192 1424 112
WIRE 224 208 224 192
WIRE 224 208 32 208
WIRE 944 208 944 192
WIRE 32 224 32 208
WIRE 128 256 128 176
WIRE 320 256 320 112
WIRE 320 256 128 256
WIRE -144 336 -144 224
WIRE 32 336 32 304
WIRE 32 336 -144 336
WIRE 368 336 368 176
WIRE 368 336 32 336
WIRE 496 336 496 256
WIRE 496 336 368 336
WIRE 624 336 624 272
WIRE 624 336 496 336
WIRE 784 336 784 224
WIRE 944 336 944 288
WIRE 944 336 784 336
WIRE 992 336 992 160
WIRE 992 336 944 336
WIRE 1104 336 1104 256
WIRE 1104 336 992 336
WIRE 1296 336 1296 256
WIRE 1296 336 1104 336
WIRE 1424 336 1424 272
WIRE 1424 336 1296 336
WIRE -144 352 -144 336
WIRE 784 352 784 336
FLAG -144 352 0
FLAG 624 112 vout
FLAG 784 352 0
FLAG 1424 112 vout2
FLAG 944 192 switch2
SYMBOL voltage -144 128 R0
WINDOW 123 24 124 Left 2
WINDOW 39 0 0 Left 0
WINDOW 3 3 -43 Left 2
SYMATTR Value2 AC 1
SYMATTR InstName V1
SYMATTR Value PULSE(0 10 1u 1n 1n 100u)
SYMBOL ind 368 128 R270
WINDOW 0 32 56 VTop 2
WINDOW 3 5 56 VBottom 2
SYMATTR InstName L1
SYMATTR Value 10µ
SYMBOL cap 480 192 R0
SYMATTR InstName C1
SYMATTR Value 1µ
SYMBOL res 608 176 R0
SYMATTR InstName R1
SYMATTR Value 10
SYMBOL AutoGenerated\\CCM-DCM1 224 144 R0
SYMATTR InstName U1
SYMBOL voltage 32 208 R0
WINDOW 123 0 0 Left 0
WINDOW 39 0 0 Left 0
SYMATTR InstName V2
SYMATTR Value 0.5
SYMBOL voltage 784 128 R0
WINDOW 123 0 0 Left 0
WINDOW 39 0 0 Left 0
SYMATTR InstName V3
SYMATTR Value 10
SYMBOL voltage 944 192 R0
WINDOW 123 0 0 Left 0
WINDOW 39 0 0 Left 0
SYMATTR InstName V4
SYMATTR Value PULSE(0 5 1u 0.001u 0.001u 0.5u 1u)
SYMBOL ind 1168 128 R270
WINDOW 0 32 56 VTop 2
WINDOW 3 5 56 VBottom 2
SYMATTR InstName L2
SYMATTR Value 10µ
SYMBOL sw 1024 112 M270
SYMATTR InstName S1
SYMBOL cap 1280 192 R0
SYMATTR InstName C2
SYMATTR Value 1µ
SYMBOL res 1408 176 R0
SYMATTR InstName R2
SYMATTR Value 10
SYMBOL diode 1120 256 R180
WINDOW 0 24 64 Left 2
WINDOW 3 24 0 Left 2
SYMATTR InstName D1
TEXT 16 416 Left 2 !.model SW SW(Ron=0.0001 Vt=1 Vh=-0.1 Roff=1G)
TEXT 16 448 Left 2 !.model d d ron=0.001 roff=1G vfwd=0.01 vrev=100
TEXT 16 480 Left 2 ;.ac dec 20 10 100k
TEXT 24 512 Left 2 !.tran 100u
