Version 4
SHEET 1 928 680
WIRE 16 -80 -192 -80
WIRE 208 -80 16 -80
WIRE 688 -80 208 -80
WIRE 208 -64 208 -80
WIRE -192 -48 -192 -80
WIRE 16 -16 16 -80
WIRE 208 32 208 16
WIRE 208 32 80 32
WIRE -192 112 -192 32
WIRE 208 128 208 32
WIRE 16 176 16 80
WIRE 144 176 16 176
WIRE 16 224 16 176
WIRE 544 224 416 224
WIRE 768 224 624 224
WIRE 208 256 208 224
WIRE 336 256 208 256
WIRE 416 256 416 224
WIRE 416 256 336 256
WIRE 416 288 416 256
WIRE 208 304 208 256
WIRE 688 304 688 -80
WIRE 864 320 720 320
WIRE 512 336 480 336
WIRE 608 336 592 336
WIRE 656 336 608 336
WIRE 768 352 768 224
WIRE 768 352 720 352
WIRE 864 368 864 320
WIRE 608 432 608 336
WIRE 640 432 608 432
WIRE 768 432 768 352
WIRE 768 432 720 432
WIRE 16 464 16 304
WIRE 208 464 208 368
WIRE 416 464 416 384
WIRE 688 464 688 368
WIRE 864 464 864 448
FLAG -192 112 0
FLAG 16 464 0
FLAG 208 464 0
FLAG 416 464 0
FLAG 688 464 0
FLAG 864 464 0
FLAG 336 256 ramp
FLAG 608 336 out
SYMBOL pnp 80 80 R180
SYMATTR InstName Q1
SYMATTR Value 2N3906
SYMBOL pnp 144 224 M180
SYMATTR InstName Q2
SYMATTR Value 2N3906
SYMBOL res 224 -80 M0
SYMATTR InstName R1
SYMATTR Value 300
SYMBOL voltage -192 -64 R0
WINDOW 123 0 0 Left 0
WINDOW 39 0 0 Left 0
SYMATTR InstName V1
SYMATTR Value 10
SYMBOL res 32 208 M0
SYMATTR InstName R2
SYMATTR Value 10k
SYMBOL cap 192 304 R0
SYMATTR InstName C1
SYMATTR Value 0.01µ
SYMBOL npn 480 288 M0
SYMATTR InstName Q3
SYMBOL res 608 320 R90
WINDOW 0 0 56 VBottom 2
WINDOW 3 32 56 VTop 2
SYMATTR InstName R3
SYMATTR Value 1k
SYMBOL voltage 864 352 R0
WINDOW 123 0 0 Left 0
WINDOW 39 0 0 Left 0
SYMATTR InstName V2
SYMATTR Value 5
SYMBOL OpAmps\\AD8605 688 272 M0
SYMATTR InstName U1
SYMBOL res 736 416 R90
WINDOW 0 0 56 VBottom 2
WINDOW 3 32 56 VTop 2
SYMATTR InstName R4
SYMATTR Value 20k
SYMBOL res 640 208 R90
WINDOW 0 0 56 VBottom 2
WINDOW 3 32 56 VTop 2
SYMATTR InstName R5
SYMATTR Value 100k
TEXT -224 560 Left 2 !.tran 100u startup
TEXT -224 536 Left 2 !.include ../closed-loop-sim/spicemodels_zener_diodes.txt
TEXT 440 536 Left 2 !.include ../closed-loop-sim/LMC648x.LIB
