Version 4
SHEET 1 880 680
SYMBOL Misc\\NE555 192 192 R0
SYMATTR InstName U1
